<configuration>
    <input>
        <net-file value="single-intersection.net.xml"/>
        <route-files value="single-intersection-vhvh.rou.xml"/>
    </input>
    <time>
        <begin value="0"/>
        <end value="3600"/>
    </time>
</configuration>
